parallel/no_load/40pc/TNB_DUMA_VLN.Txt

SYMMETRICAL COMPONENT VOLTAGES BY BUS (for 3-phase buses)

Bus               Mag:   V1 (kV)    p.u.     V2 (kV)   %V2/V1    V0 (kV)    %V0/V1

ppu_duma_33kv        19.11      1.003  9.306E-009  4.869E-008 1.239E-009 6.484E-009
ppu_duma_11kv        6.341     0.9985  3.289E-009  5.187E-008 5.674E-011 8.949E-010
rpplngi2             6.406      1.009  3.319E-009  5.18E-008 5.791E-011 9.04E-010
pdtjlnmasjid         6.455      1.016  3.341E-009  5.176E-008 5.905E-011 9.148E-010
bella                6.488      1.022  3.356E-009  5.172E-008 5.993E-011 9.238E-010
pstpdgn              6.504      1.024  3.363E-009  5.171E-008 6.041E-011 9.287E-010
pamdra               6.348     0.9995  3.292E-009  5.187E-008 5.683E-011 8.953E-010
duma4                 6.37      1.003  3.303E-009  5.184E-008 6.176E-011 9.695E-010
plsdra                6.42      1.011  3.326E-009  5.18E-008 8.499E-011 1.324E-009
ssu_uptwres_ir1      6.428      1.012  3.329E-009  5.179E-008 8.551E-011 1.33E-009
atria_1               6.43      1.012  3.329E-009  5.178E-008 5.842E-011 9.086E-010
hawker               6.445      1.015  3.336E-009  5.177E-008 7.213E-011 1.119E-009
prmte                6.401      1.008  3.317E-009  5.182E-008 7.83E-011 1.223E-009
prmta                6.411      1.009  3.321E-009  5.181E-008 7.888E-011 1.231E-009
pmontb               6.419      1.011  3.325E-009  5.18E-008 8.325E-011 1.297E-009
duma7                6.365      1.002   3.3E-009  5.184E-008 5.762E-011 9.052E-010
haus                 6.414       1.01  3.321E-009  5.179E-008 1.039E-010 1.619E-009
duma6                6.546      1.031  3.38E-009  5.163E-008 3.361E-010 5.134E-009
duma13               6.666       1.05  3.432E-009  5.149E-008 5.782E-010 8.674E-009
ssu_duma5_im2        6.682      1.052  3.439E-009  5.147E-008 5.813E-010  8.7E-009
plngi_b              6.374      1.004  3.304E-009  5.184E-008 5.723E-011 8.978E-010
plngi_d              6.391      1.006  3.312E-009  5.182E-008 5.751E-011 8.999E-010
pdtlitrak            6.499      1.023  3.362E-009  5.173E-008 6.063E-011 9.329E-010
duma12               6.563      1.033  3.391E-009  5.167E-008 6.278E-011 9.565E-010
tmngh4               6.623      1.043  3.419E-009  5.162E-008 9.029E-011 1.363E-009
ssu_tmegah3_ir1      6.648      1.047  3.43E-009  5.16E-008 1.051E-010 1.581E-009
tmngh2               6.658      1.048  3.435E-009  5.16E-008 1.119E-010 1.681E-009
sprk9                6.487      1.021  3.356E-009  5.173E-008 5.997E-011 9.244E-010
bomba                6.495      1.023  3.359E-009  5.172E-008 6.179E-011 9.513E-010
sprk8                6.516      1.026  3.369E-009  5.17E-008 6.873E-011 1.055E-009
ssu_uptwres_im2      6.366      1.002  3.301E-009  5.185E-008 6.147E-011 9.656E-010
maybank              6.399      1.008  3.316E-009  5.181E-008 6.278E-011 9.81E-010
duma8                6.406      1.009  3.319E-009  5.181E-008 6.494E-011 1.014E-009
ssu_dsarcntr_ir1     6.358      1.001  3.297E-009  5.185E-008 5.696E-011 8.959E-010
duma9                6.453      1.016  3.34E-009  5.176E-008 5.905E-011 9.15E-010
duma1                6.499      1.023  3.361E-009  5.171E-008 6.03E-011 9.278E-010
elite                6.515      1.026  3.368E-009  5.17E-008 6.079E-011 9.33E-010
duma10                6.42      1.011  3.325E-009  5.179E-008 5.814E-011 9.056E-010
balaipolis           6.421      1.011  3.326E-009  5.179E-008 5.816E-011 9.057E-010
ppu_duma_vcb1            0          0          0          0         0         0
